Circuit: * C:\Users\Tobias\Documents\Workspace_TC2\Tareas_Semanales\TS7\Draft1.asc

.OP point found by inspection.
Ignoring empty pin current: Ix(u1:1)
Ignoring empty pin current: Ix(u1:2)
Ignoring empty pin current: Ix(u1:1)
Ignoring empty pin current: Ix(u1:2)

Date: Sat Dec  2 13:21:15 2023
Total elapsed time: 0.023 seconds.

tnom = 27
temp = 27
method = trap
totiter = 0
traniter = 0
tranpoints = 0
accept = 0
rejected = 0
matrix size = 5
fillins = 0
solver = Normal
Avg thread counts: 12.0/0.0/0.0/12.0
Matrix Compiler1:      12 opcodes
Matrix Compiler2:      28 opcodes
