Circuit: * C:\Users\Tobias\Documents\Workspace_TC2\Jupyter\TS6\Draft1.asc

.OP point found by inspection.

Date: Mon Nov  6 09:57:59 2023
Total elapsed time: 0.014 seconds.

tnom = 27
temp = 27
method = trap
totiter = 0
traniter = 0
tranpoints = 0
accept = 0
rejected = 0
matrix size = 4
fillins = 1
solver = Normal
Avg thread counts: 12.0/0.0/0.0/5.8
Matrix Compiler1:       9 opcodes
Matrix Compiler2:      22 opcodes
