Circuit: * C:\Users\tobia\Documents\ts1_tc2.asc

.OP point found by inspection.
Ignoring empty pin current: Ix(u1:1)
Ignoring empty pin current: Ix(u1:2)
Ignoring empty pin current: Ix(u1:1)
Ignoring empty pin current: Ix(u1:2)

Date: Sun Apr  9 20:33:51 2023
Total elapsed time: 0.020 seconds.

tnom = 27
temp = 27
method = trap
totiter = 0
traniter = 0
tranpoints = 0
accept = 0
rejected = 0
matrix size = 5
fillins = 1
solver = Normal
Avg thread counts: 12.0/0.0/0.0/3.0
Matrix Compiler1:      14 opcodes
Matrix Compiler2:      29 opcodes
